Result/IEEE14_Result.txt
------------------------------------------------------------------------------------------------------
********************************************原始数据信息**********************************************
------------------------------------------------------------------------------------------------------

14节点系统的计算结果如下：
最大允许迭代次数：30
计算精度：1e-05
节点数   线路支路数   变压器支路数    发动机个数   负荷个数
   14          18            3              5           12
<----------------------------------------------线路数据---------------------------------------------->

i    j    R                 X                 B/2               
1    2    0.01938000     0.05917000     0.02640000
1    5    0.05403000     0.22304000     0.02460000
2    3    0.04699000     0.19797000     0.02190000
2    4    0.05811000     0.17632000     0.01700000
2    5    0.05695000     0.17388000     0.01730000
3    4    0.06701000     0.17103000     0.00640000
4    5    0.01335000     0.04211000     0.00000000
6    11   0.09498000     0.19890000     0.00000000
6    12   0.12291000     0.25581000     0.00000000
6    13   0.06615000     0.13027000     0.00000000
7    8    0.00000000     0.17615000     0.00000000
7    9    0.00000000     0.11001000     0.00000000
9    10   0.03181000     0.08450000     0.00000000
9    14   0.12711000     0.27038000     0.00000000
10   11   0.08205000     0.19207000     0.00000000
12   13   0.22092000     0.19988000     0.00000000
13   14   0.17093000     0.34802000     0.00000000
9    9    0.00000000     0.19000000     -1.00000000

<----------------------------------------------变压器数据---------------------------------------------->

i    j(非标准变比侧)     R              X              K              
7    4                   0.00000000     0.20912000     0.97800000     
9    4                   0.00000000     0.55618000     0.96900000     
6    5                   0.00000000     0.25202000     0.93200000     

<----------------------------------------------发电机数据---------------------------------------------->

i    type    p              Q              V              
1    0       0.00000000     0.00000000     1.06000000     
2    -1      0.40000000     0.00000000     1.04500000     
3    -1      0.00000000     0.00000000     1.01000000     
6    -1      0.00000000     0.00000000     1.07000000     
8    -1      0.00000000     0.00000000     1.09000000     

<-----------------------------------------------负荷数据----------------------------------------------->

i    type    p              Q              V              
2    1       0.21700000     0.12700000     0.00000000     
3    1       0.94200000     0.19000000     0.00000000     
4    1       0.47800000     -0.03900000    0.00000000     
5    1       0.07600000     0.01600000     0.00000000     
6    1       0.11200000     0.07500000     0.00000000     
7    1       0.00000000     0.00000000     0.00000000     
9    1       0.29500000     0.16600000     0.00000000     
10   1       0.09000000     0.05800000     0.00000000     
11   1       0.03500000     0.01800000     0.00000000     
12   1       0.06100000     0.01600000     0.00000000     
13   1       0.13500000     0.05800000     0.00000000     
14   1       0.14900000     0.05000000     0.00000000     




------------------------------------------------------------------------------------------------------------
********************************************牛顿法潮流计算结果**********************************************
------------------------------------------------------------------------------------------------------------

节点数：14
发电机数：5
负荷数：12
不接地线路数：17
接地线路数：1
变压器数：3
平衡节点：1
迭代次数：4
最大失配量：0.00000006
最低电压值：1.01000000      最低电压节点：3


<-----------------------------------------------各节点数据------------------------------------------------->

节点    电压幅值       电压相位       Pg             Qg             Pl             Ql             
1       1.06000000     0.00000000     2.32393266     -0.16549301    0.00000000     0.00000000     
2       1.04500000     -4.98258909    0.40000000     0.43557095     0.21700000     0.12700000     
3       1.01000000     -12.72509989   0.00000001     0.25075346     0.94200000     0.19000000     
6       1.07000000     -14.22094620   0.00000002     0.12730939     0.11200000     0.07500000     
8       1.09000000     -13.35962740   0.00000000     0.17623448     0.00000000     0.00000000     
4       1.01767086     -10.31290105   0.00000000     0.00000000     0.47800000     -0.03900000    
5       1.01951386     -8.77385382    0.00000000     0.00000000     0.07600000     0.01600000     
7       1.06151954     -13.35962740   0.00000000     0.00000000     0.00000000     0.00000000     
9       1.05593173     -14.93852149   0.00000000     0.00000000     0.29500000     0.16600000     
10      1.05098463     -15.09728856   0.00000000     0.00000000     0.09000000     0.05800000     
11      1.05690652     -14.79062187   0.00000000     0.00000000     0.03500000     0.01800000     
12      1.05518856     -15.07558427   0.00000000     0.00000000     0.06100000     0.01600000     
13      1.05038172     -15.15627612   0.00000000     0.00000000     0.13500000     0.05800000     
14      1.03552995     -16.03364458   0.00000000     0.00000000     0.14900000     0.05000000     


<------------------------------------------------支路功率------------------------------------------------->

节点号I   节点号J   支路功率I->J                支路功率J->I               支路有功损耗   支路无功损耗   
1         2         1.56882887+j-0.20404291    -1.52585286+j0.27676248     0.04297600     0.07271957     
1         5         0.75510380+j0.03854989     -0.72747507+j0.02229360     0.02762872     0.06084349     
2         3         0.73237578+j0.03560203     -0.70914309+j0.01602232     0.02323269     0.05162436     
2         4         0.56131495+j-0.01550352    -0.54454837+j0.03020689     0.01676658     0.01470337     
2         5         0.41516214+j0.01170996     -0.40612460+j-0.02099032    0.00903753     -0.00928036    
3         4         -0.23285691+j0.04473114     0.23659136+j-0.04835650    0.00373445     -0.00362537    
4         5         -0.61158231+j0.15823642     0.61672651+j-0.14201004    0.00514420     0.01622637     
6         11        0.07353277+j0.03560471     -0.07297904+j-0.03444512    0.00055373     0.00115959     
6         12        0.07786067+j0.02503414     -0.07714258+j-0.02353959    0.00071809     0.00149455     
6         13        0.17747977+j0.07216574     -0.17535891+j-0.06798912    0.00212085     0.00417662     
7         8         0.00000000+j-0.17162967    0.00000000+j0.17623448     0.00000000     0.00460481     
7         9         0.28074179+j0.05778690     -0.28074179+j-0.04976621    0.00000000     0.00802069     
9         10        0.05227551+j0.04219139     -0.05214676+j-0.04184938    0.00012875     0.00034201     
9         14        0.09426380+j0.03610007     -0.09310226+j-0.03362932    0.00116154     0.00247075     
10        11        -0.03785324+j-0.01615061    0.03797906+j0.01644513     0.00012581     0.00029451     
12        13        0.01614258+j0.00753959     -0.01607959+j-0.00748260    0.00006298     0.00005698     
13        14        0.05643852+j0.01747172     -0.05589774+j-0.01637068    0.00054078     0.00110105     
9         9         0.00000000+j-0.21184844    0.00000000+j0.00000000     0.00000000     -0.21184844    


<------------------------------------------------变压器支路------------------------------------------------>

7         4         -0.28074176+j0.11384281     0.28074176+j-0.09681066    0.00000000     0.01703214     
9         4         -0.16079758+j0.01732322     0.16079758+j-0.00427611    0.00000000     0.01304711     
6         5         -0.44087319+j-0.08049520    0.44087319+j0.12470682     0.00000000     0.04421161     


------------------------------------------------------------------------------------------------------------

发电机有功功率：2.72393268         负荷有功功率：2.59000000          系统有功损耗：0.13393272
发电机无功功率：0.82437526         负荷无功功率：0.73500000          系统无功损耗：0.08937541
